* PSpice Model Editor - Version 16.6.0
*$
.model Dbreak D Is=1e-6 Cjo=.1pF Rs=.1 N=55
*$
